  36
        -45.55145318
 C          1.3355087439        0.2449071189       -0.1770881282
 C          2.1266151884       -0.8943375425        0.3344828720
 N          3.4437488171       -0.6641285740        0.5710404993
 H          3.9492577670       -1.4449762071        0.9627193475
 O          1.6545374382       -2.0019817898        0.5384566911
 C          0.0457576406        0.0638649007       -0.4605992910
 C         -2.0437272111       -0.1870100912       -0.8042991949
 H         -2.4630496975       -0.4855703517       -1.7679999372
 C         -3.2124465274       -0.0045414921        0.1759849222
 C         -2.7526320776        0.4455026194        1.5647103834
 C         -4.1732494053        1.0435280441       -0.3961642607
 C         -3.9476570037       -1.3426892074        0.3035114656
 C         -0.8813530928       -1.1054261641       -0.3675983394
 H         -0.9417353641       -1.5468630414        0.6239069608
 H         -0.6404213276       -1.9086515806       -1.0622149169
 C         -1.0378179544        0.9789184529       -0.9487796158
 H         -0.8979202180        1.3262946487       -1.9732928791
 H         -1.2164474791        1.8481047531       -0.3183269409
 C          4.1421685324        0.5874070632        0.4097198470
 H          5.1857419944        0.3767580633        0.1574084065
 H          4.1292315270        1.1579805403        1.3507190332
 C          3.4766187241        1.4031963262       -0.6909410088
 H          3.5634767669        0.8697572632       -1.6395044463
 H          3.9734980866        2.3692090415       -0.7891800167
 C          2.0048394699        1.5844578087       -0.3403740757
 H          1.4919144916        2.1568989888       -1.1153890859
 H          1.9238304858        2.1469967130        0.5959213749
 H         -3.2890634069       -2.1062044173        0.7090559856
 H         -4.8055651733       -1.2430902502        0.9648447804
 H         -4.3028095073       -1.6794781120       -0.6681258737
 H         -3.6710179544        1.9994665680       -0.5251351765
 H         -4.5556411292        0.7260732166       -1.3640105835
 H         -5.0180360627        1.1891816159        0.2733656275
 H         -3.6084632460        0.4995606500        2.2343599300
 H         -2.0358291552       -0.2514619929        1.9892249556
 H         -2.2929000472        1.4297465519        1.5315194398
