5
 energy: -4.175218349029 gnorm: 0.000285889590 xtb: 6.5.1 (homebrew)
C            2.15096233738819        0.03850046371504        0.00021536290752
H            1.24341683842498        0.02564992622224       -0.58892386874773
H            2.27208513466016       -0.91518872299868        0.49700646251234
H            2.09022798901122        0.82606329515963        0.74030771299452
H            2.99843770051628        0.21738503790097       -0.64860566966547
