76
 energy: -162.845647693137 gnorm: 0.000878374419 xtb: 6.5.1 (homebrew)
C           -2.46793246169057       -2.70035786236203       -0.15387970892215
C           -2.03213704911269       -2.62758786433049       -1.48345978093695
C           -2.71018689714270       -1.69172809905092       -2.29767016932665
C           -2.08182063119930       -1.15685962580006       -3.47236396367137
C           -0.82872467647801       -1.60553412501439       -3.82925884097342
C            0.22856076195918       -3.32784955640929       -0.68906457733417
C           -0.67478707584321       -3.02214468329168       -1.78470515099326
C           -0.14053227364417       -2.57487402104858       -3.00811571206310
C            1.59978989347276       -3.14732008382201       -0.90618538208855
C            2.11597825805976       -2.62402695543363       -2.12696875436176
C            1.25828548932550       -2.33954086459569       -3.17405643507487
C           -0.22856076195920       -3.32784955640927        0.68906457733416
C            0.67478707584320       -3.02214468329168        1.78470515099326
C           -1.59978989347276       -3.14732008382190        0.90618538208854
C            0.14053227364415       -2.57487402104861        3.00811571206312
C           -1.44469771193341        1.14548777972389       -3.95694014097883
C           -0.14428633443524        0.68062092641355       -4.35517181853352
C           -2.42181332728447        0.23554391789494       -3.57624441307679
C            0.14428633443522       -0.68062092641356       -4.35517181853353
C            1.44469771193338       -1.14548777972391       -3.95694014097882
C            0.82872467647797        1.60553412501436       -3.82925884097336
C            2.08182063119932        1.15685962580009       -3.47236396367140
C            2.42181332728450       -0.23554391789492       -3.57624441307680
C           -3.19650347036033        1.73022328069363       -1.80599861816535
C           -2.11597825805976        2.62402695543361       -2.12696875436177
C           -3.30912019053095        0.53187872597959       -2.48299382718848
C           -1.25828548932550        2.33954086459568       -3.17405643507485
C            0.14053227364415        2.57487402104860       -3.00811571206311
C           -1.59978989347276        3.14732008382191       -0.90618538208854
C           -0.22856076195920        3.32784955640927       -0.68906457733416
C            0.67478707584320        3.02214468329168       -1.78470515099326
C            2.03213704911267        2.62758786433049       -1.48345978093695
C            2.46793246169054        2.70035786236202       -0.15387970892214
C            2.71018689714270        1.69172809905093       -2.29767016932664
C           -3.52434959175325        0.67491858748233        1.72326476131610
C           -3.80258629096363        0.63849398441280        0.34335034945778
C           -3.40449057470458        1.78080877068701       -0.38744478799650
C           -2.46793246169057        2.70035786236203        0.15387970892215
C           -2.03213704911269        2.62758786433049        1.48345978093696
C           -2.71018689714271        1.69172809905092        2.29767016932666
C           -0.82872467647801        1.60553412501439        3.82925884097342
C           -2.08182063119930        1.15685962580006        3.47236396367137
C            1.59978989347276        3.14732008382201        0.90618538208855
C            0.22856076195918        3.32784955640929        0.68906457733417
C           -0.67478707584321        3.02214468329168        1.78470515099326
C           -0.14053227364417        2.57487402104858        3.00811571206309
C           -3.80258629096363       -0.63849398441280       -0.34335034945777
C           -3.52434959175325       -0.67491858748234       -1.72326476131610
C           -3.30912019053095       -0.53187872597959        2.48299382718849
C           -3.19650347036033       -1.73022328069363        1.80599861816535
C           -3.40449057470458       -1.78080877068701        0.38744478799650
C           -2.42181332728447       -0.23554391789494        3.57624441307678
C           -2.11597825805976       -2.62402695543360        2.12696875436177
C           -1.25828548932550       -2.33954086459568        3.17405643507485
C           -1.44469771193340       -1.14548777972389        3.95694014097883
C            1.44469771193338        1.14548777972391        3.95694014097883
C            0.14428633443522        0.68062092641356        4.35517181853353
C           -0.14428633443524       -0.68062092641355        4.35517181853352
C            2.42181332728449        0.23554391789492        3.57624441307680
C            3.19650347036034        1.73022328069365        1.80599861816535
C            2.11597825805977        2.62402695543363        2.12696875436177
C            1.25828548932549        2.33954086459569        3.17405643507487
C            3.30912019053095        0.53187872597958        2.48299382718849
C            3.52434959175330        0.67491858748235       -1.72326476131611
C            3.80258629096369        0.63849398441280       -0.34335034945777
C            3.40449057470463        1.78080877068704        0.38744478799650
C            3.40449057470463       -1.78080877068704       -0.38744478799650
C            3.19650347036033       -1.73022328069364       -1.80599861816535
C            3.30912019053095       -0.53187872597958       -2.48299382718849
C            3.52434959175330       -0.67491858748235        1.72326476131611
C            3.80258629096369       -0.63849398441280        0.34335034945777
C            0.82872467647797       -1.60553412501436        3.82925884097337
C            2.08182063119931       -1.15685962580009        3.47236396367139
C            2.71018689714270       -1.69172809905093        2.29767016932664
C            2.03213704911267       -2.62758786433049        1.48345978093694
C            2.46793246169053       -2.70035786236202        0.15387970892214
